Version 4
SHEET 1 1316 680
WIRE 1072 -336 272 -336
WIRE 1200 -336 1072 -336
WIRE 1072 -304 1072 -336
WIRE 1200 -304 1200 -336
WIRE 272 -144 272 -336
WIRE 400 -144 272 -144
WIRE -240 -96 -304 -96
WIRE 272 -96 272 -144
WIRE 272 -96 -240 -96
WIRE 1072 -80 1072 -224
WIRE 1200 -80 1200 -224
WIRE -112 -32 -176 -32
WIRE -32 -32 -112 -32
WIRE 400 -32 400 -144
WIRE -112 16 -112 -32
WIRE -32 32 -32 -32
WIRE -16 32 -32 32
WIRE 272 32 272 -96
WIRE 272 32 208 32
WIRE -304 80 -304 -96
WIRE 1072 80 1072 -16
WIRE 1200 80 1200 -16
WIRE 1200 80 1072 80
WIRE -112 96 -112 80
WIRE -16 96 -112 96
WIRE 400 96 400 48
WIRE 400 96 208 96
WIRE -16 160 -64 160
WIRE 304 160 208 160
WIRE 400 176 400 96
WIRE -304 208 -304 160
WIRE -176 208 -176 -32
WIRE -176 208 -304 208
WIRE -240 224 -240 -96
WIRE -16 224 -240 224
WIRE -112 304 -112 96
WIRE 304 304 304 160
WIRE 304 304 -112 304
WIRE 400 304 400 256
WIRE 400 304 304 304
WIRE -304 320 -304 208
WIRE 1072 352 1072 80
WIRE 1072 352 1040 352
WIRE -64 400 -64 160
WIRE 416 400 -64 400
WIRE 560 400 496 400
WIRE 704 400 560 400
WIRE 800 400 704 400
WIRE 976 400 880 400
WIRE 560 464 560 400
WIRE 704 480 704 400
WIRE 560 640 560 544
WIRE 704 640 704 544
WIRE 1040 640 1040 448
FLAG -304 320 0
FLAG 560 640 0
FLAG 704 640 0
FLAG 1040 640 0
SYMBOL Misc\\NE555 96 128 R0
SYMATTR InstName U1
SYMBOL voltage -304 64 R0
WINDOW 123 0 0 Left 0
WINDOW 39 0 0 Left 0
SYMATTR InstName V1
SYMATTR Value 3v
SYMBOL cap -128 16 R0
SYMATTR InstName C1
SYMATTR Value 10µf
SYMBOL res 384 -48 R0
SYMATTR InstName R1
SYMATTR Value 22k
SYMBOL res 384 160 R0
SYMATTR InstName R2
SYMATTR Value 330k
SYMBOL res 512 384 R90
WINDOW 0 0 56 VBottom 2
WINDOW 3 32 56 VTop 2
SYMATTR InstName R3
SYMATTR Value 22k
SYMBOL res 544 448 R0
SYMATTR InstName R4
SYMATTR Value 100k
SYMBOL res 896 384 R90
WINDOW 0 0 56 VBottom 2
WINDOW 3 32 56 VTop 2
SYMATTR InstName R5
SYMATTR Value 10k
SYMBOL res 1056 -320 R0
SYMATTR InstName R6
SYMATTR Value 100
SYMBOL res 1184 -320 R0
SYMATTR InstName R7
SYMATTR Value 100
SYMBOL npn 976 352 R0
SYMATTR InstName Q1
SYMATTR Value 2N3904
SYMBOL LED 1056 -80 R0
SYMATTR InstName D1
SYMBOL LED 1184 -80 R0
SYMATTR InstName D2
SYMBOL cap 688 480 R0
SYMATTR InstName C2
SYMATTR Value 100µf
TEXT -338 664 Left 2 !.tran 0 20 0 10ms
